Version 4.1
SHEET 1 1684 856
WIRE 16 -352 -368 -352
WIRE 16 -176 16 -352
WIRE 16 -176 -16 -176
WIRE -368 -144 -368 -352
WIRE 272 -144 -16 -144
WIRE -128 -128 -240 -128
WIRE -768 -64 -768 -80
WIRE -656 -32 -688 -32
WIRE 816 -16 608 -16
WIRE -688 16 -688 -32
WIRE -688 16 -768 16
WIRE -240 48 -240 -128
WIRE -240 48 -256 48
WIRE -208 48 -240 48
WIRE 896 64 848 64
WIRE -768 96 -864 96
WIRE 688 96 672 96
WIRE 1472 96 1408 96
WIRE 1552 96 1472 96
WIRE 1280 112 1264 112
WIRE 1344 112 1280 112
WIRE -368 128 -368 -144
WIRE 272 160 272 -144
WIRE 304 160 272 160
WIRE 608 160 608 -16
WIRE 608 160 560 160
WIRE 672 160 672 96
WIRE 672 160 608 160
WIRE 848 176 848 64
WIRE 848 176 736 176
WIRE 864 176 848 176
WIRE 1264 176 1264 112
WIRE 848 208 848 176
WIRE 848 208 736 208
WIRE 864 224 864 176
WIRE 1120 224 944 224
WIRE -208 240 -224 240
WIRE -32 240 -96 240
WIRE 1120 240 1120 224
WIRE 304 256 288 256
WIRE 608 256 560 256
WIRE 608 272 608 256
WIRE 672 272 672 256
WIRE 672 272 608 272
WIRE 672 288 672 272
WIRE 688 288 672 288
WIRE 1120 304 1120 288
WIRE -224 320 -224 240
WIRE -224 320 -320 320
WIRE 1120 320 1120 304
WIRE 1184 320 1184 176
WIRE 1184 320 1120 320
WIRE 1120 336 1120 320
WIRE 608 352 608 272
WIRE 880 352 608 352
WIRE 1280 352 1280 112
WIRE 1344 352 1280 352
WIRE 1472 352 1472 96
WIRE 1472 352 1408 352
WIRE -320 384 -320 320
WIRE -192 384 -192 368
WIRE -192 384 -320 384
WIRE -144 384 -160 384
WIRE 288 384 288 256
WIRE 288 384 -32 384
WIRE -368 448 -368 240
WIRE -320 448 -368 448
WIRE -160 464 -160 384
WIRE -160 464 -208 464
WIRE -192 496 -192 384
WIRE -192 496 -208 496
FLAG 944 288 0
FLAG 368 336 0
FLAG 496 336 0
FLAG 368 80 VDD
IOPIN 368 80 In
FLAG 496 80 VDD
IOPIN 496 80 In
FLAG 816 -16 GATE_P
IOPIN 816 -16 Out
FLAG 896 64 VSW
IOPIN 896 64 Out
FLAG 880 352 GATE_N
IOPIN 880 352 Out
FLAG 256 784 VDD
IOPIN 256 784 In
FLAG 256 720 VCM
IOPIN 256 720 In
FLAG 256 688 VBIAS
IOPIN 256 688 In
FLAG 480 688 PWM
IOPIN 480 688 Out
FLAG 256 752 VCTRL
IOPIN 256 752 In
FLAG 736 304 0
FLAG 736 80 VDD
IOPIN 736 80 In
FLAG -160 80 0
FLAG -160 272 0
FLAG 16 272 0
FLAG -80 416 0
FLAG -160 208 VDD
IOPIN -160 208 In
FLAG 16 208 VDD
IOPIN 16 208 In
FLAG -160 16 VDD
IOPIN -160 16 In
FLAG -400 192 VDD
IOPIN -400 192 In
FLAG -80 352 VDD
IOPIN -80 352 In
FLAG -368 -144 PWM
IOPIN -368 -144 In
FLAG -96 48 GATE_N
IOPIN -96 48 In
FLAG 80 240 GATE_P
IOPIN 80 240 In
FLAG -336 192 0
FLAG -304 48 0
FLAG -288 240 0
FLAG -128 -192 0
FLAG -320 512 0
FLAG -128 -160 VDD
IOPIN -128 -160 In
FLAG -320 480 VDD
IOPIN -320 480 In
FLAG -656 -32 VCM
IOPIN -656 -32 Out
FLAG -800 400 0
FLAG -800 320 VBIAS
IOPIN -800 320 Out
FLAG -768 -80 0
FLAG -768 176 0
FLAG -864 96 VDD
IOPIN -864 96 Out
FLAG 1120 416 0
FLAG 1552 96 VCTRL
IOPIN 1552 96 Out
FLAG 1344 80 VREF
IOPIN 1344 80 In
FLAG 1376 64 0
FLAG 1376 128 VDD
IOPIN 1376 128 In
FLAG -560 784 0
FLAG -560 704 VREF
IOPIN -560 704 Out
SYMBOL PowerProducts\\LTC1693-1 432 208 R0
SYMATTR InstName U1
SYMBOL pmos 688 176 M180
SYMATTR InstName M1
SYMATTR Value Si4427DY
SYMBOL nmos 688 208 R0
SYMATTR InstName M2
SYMATTR Value AO6408
SYMBOL ind 848 240 R270
WINDOW 0 32 56 VTop 2
WINDOW 3 5 56 VBottom 2
SYMATTR InstName L1
SYMATTR Value 100µ
SYMBOL cap 928 224 R0
SYMATTR InstName C3
SYMATTR Value 47µ
SYMBOL analoglab_1 368 736 R0
SYMATTR InstName X1
SYMBOL CD4069UB -144 240 M0
WINDOW 3 38 39 Top 1
SYMATTR InstName U3
SYMBOL CD4069UB -96 384 R0
SYMATTR InstName U4
SYMBOL CD4069UB -144 48 M0
SYMATTR InstName U5
SYMBOL CD4069UB -368 176 M90
WINDOW 3 67 35 Top 1
SYMATTR InstName U6
SYMBOL CD4069UB 32 240 M0
WINDOW 3 48 40 Top 1
SYMATTR InstName U8
SYMBOL cap -240 32 R90
WINDOW 0 0 32 VBottom 2
WINDOW 3 32 32 VTop 2
SYMATTR InstName Cp
SYMATTR Value 1n
SYMBOL cap -224 224 R90
WINDOW 0 0 32 VBottom 2
WINDOW 3 32 32 VTop 2
SYMATTR InstName Cn
SYMATTR Value 1n
SYMBOL SN74AHC00 -64 -160 R180
SYMATTR InstName U2
SYMBOL SN74AHC00 -256 480 M0
SYMATTR InstName U7
SYMBOL res -784 -80 R0
SYMATTR InstName R1
SYMATTR Value 10K
SYMBOL res -784 0 R0
SYMATTR InstName R2
SYMATTR Value 10K
SYMBOL voltage -800 304 R0
WINDOW 123 0 0 Left 0
WINDOW 39 0 0 Left 0
SYMATTR InstName V2
SYMATTR Value 2.5
SYMBOL voltage -768 80 R0
WINDOW 123 0 0 Left 0
WINDOW 39 0 0 Left 0
SYMATTR InstName V1
SYMATTR Value 5
SYMBOL res 1104 320 R0
SYMATTR InstName R4
SYMATTR Value 5
SYMBOL OpAmps\\UniversalOpAmp 1376 96 M180
SYMATTR InstName U9
SYMBOL res 1280 160 R90
WINDOW 0 0 56 VBottom 2
WINDOW 3 32 56 VTop 2
SYMATTR InstName R5
SYMATTR Value 10k
SYMBOL cap 1408 336 R90
WINDOW 0 0 32 VBottom 2
WINDOW 3 32 32 VTop 2
SYMATTR InstName C1
SYMATTR Value 25n
SYMBOL voltage -560 688 R0
WINDOW 123 0 0 Left 0
WINDOW 39 0 0 Left 0
SYMATTR InstName V3
SYMATTR Value 250m
SYMBOL LED 1104 240 R0
SYMATTR InstName D1
SYMATTR Value L1C1-FRD1000000000
TEXT -776 592 Left 2 !.tran 0.02
