Version 4.1
SHEET 1 1768 1856
WIRE -1328 832 -1328 816
WIRE -496 832 -560 832
WIRE -256 832 -432 832
WIRE -368 896 -448 896
WIRE -256 896 -256 832
WIRE -256 896 -288 896
WIRE -1328 928 -1328 912
WIRE -368 1024 -368 1008
WIRE -672 1040 -704 1040
WIRE -560 1040 -560 832
WIRE -560 1040 -592 1040
WIRE -512 1040 -560 1040
WIRE -448 1040 -448 896
WIRE -400 1040 -448 1040
WIRE -256 1056 -256 896
WIRE -256 1056 -336 1056
WIRE -128 1056 -256 1056
WIRE -560 1072 -560 1040
WIRE -400 1072 -416 1072
WIRE -416 1104 -416 1072
WIRE -560 1168 -560 1152
WIRE -368 1168 -368 1088
WIRE 1296 1312 1072 1312
WIRE 1392 1328 1360 1328
WIRE 1408 1328 1392 1328
WIRE 1504 1328 1456 1328
WIRE 1536 1328 1504 1328
WIRE 1632 1328 1536 1328
WIRE -1888 1344 -1888 1328
WIRE -1712 1344 -1712 1328
WIRE 1296 1344 1232 1344
WIRE 912 1360 736 1360
WIRE 992 1360 912 1360
WIRE 1072 1360 1072 1312
WIRE 1072 1360 1056 1360
WIRE 672 1376 608 1376
WIRE -496 1392 -560 1392
WIRE -256 1392 -432 1392
WIRE 560 1392 528 1392
WIRE 1632 1424 1632 1408
WIRE 1728 1424 1632 1424
WIRE -1888 1440 -1888 1424
WIRE -1712 1440 -1712 1424
WIRE -1648 1440 -1712 1440
WIRE 1632 1440 1632 1424
WIRE -1712 1456 -1712 1440
WIRE -368 1456 -448 1456
WIRE -256 1456 -256 1392
WIRE -256 1456 -288 1456
WIRE 560 1456 560 1392
WIRE 608 1456 608 1376
WIRE 608 1456 560 1456
WIRE 1728 1456 1728 1424
WIRE 1232 1472 1232 1344
WIRE 1504 1472 1504 1328
WIRE 1504 1472 1232 1472
WIRE -1888 1504 -1888 1488
WIRE 560 1504 560 1456
WIRE 560 1504 528 1504
WIRE 608 1520 608 1456
WIRE 672 1520 608 1520
WIRE 912 1520 912 1360
WIRE 912 1520 752 1520
WIRE -1712 1552 -1712 1536
WIRE -368 1584 -368 1568
WIRE -1888 1600 -1888 1584
WIRE -672 1600 -704 1600
WIRE -560 1600 -560 1392
WIRE -560 1600 -592 1600
WIRE -512 1600 -560 1600
WIRE -448 1600 -448 1456
WIRE -400 1600 -448 1600
WIRE -256 1616 -256 1456
WIRE -256 1616 -336 1616
WIRE -112 1616 -256 1616
WIRE -560 1632 -560 1600
WIRE -400 1632 -416 1632
WIRE -416 1664 -416 1632
WIRE -560 1728 -560 1712
WIRE -368 1728 -368 1648
FLAG -560 1168 0
FLAG -704 1040 Vin_audio
IOPIN -704 1040 In
FLAG -560 1728 0
FLAG -704 1600 Vin_audio
IOPIN -704 1600 In
FLAG -416 1104 VCM1
IOPIN -416 1104 In
FLAG -416 1664 VCM
IOPIN -416 1664 In
FLAG -112 1616 VBPF2
IOPIN -112 1616 Out
FLAG -128 1056 VBPF1
IOPIN -128 1056 Out
FLAG 912 1520 V_ADD
IOPIN 912 1520 Out
FLAG 448 1392 VBPF1
IOPIN 448 1392 In
FLAG 448 1504 VBPF2
IOPIN 448 1504 In
FLAG 672 1344 VCM
IOPIN 672 1344 In
FLAG 1072 1440 0
FLAG 1536 1392 0
FLAG -368 1568 0
FLAG -368 1008 0
FLAG -368 1168 VDD1
IOPIN -368 1168 In
FLAG -368 1728 VDD
IOPIN -368 1728 In
FLAG 704 1392 0
FLAG 1328 1360 0
FLAG 704 1328 VDD
IOPIN 704 1328 In
FLAG 1328 1296 VDD
IOPIN 1328 1296 In
FLAG 1632 1520 0
FLAG 1728 1520 0
FLAG -1328 816 Vin_audio
IOPIN -1328 816 Out
FLAG -1328 928 0
FLAG -1888 1440 0
FLAG -1888 1328 VDD1
IOPIN -1888 1328 Out
FLAG -1888 1488 0
FLAG -1888 1600 VSS
IOPIN -1888 1600 Out
FLAG -1712 1552 0
FLAG -1712 1328 VDD1
IOPIN -1712 1328 In
FLAG -1648 1440 VCM1
IOPIN -1648 1440 Out
SYMBOL analoglab_1 16 704 R0
SYMATTR InstName X1
SYMBOL res -576 1024 R90
WINDOW 0 0 56 VBottom 1
WINDOW 3 32 56 VTop 0
SYMATTR InstName R5
SYMATTR Value 160k
SYMBOL res -576 1056 R0
WINDOW 0 36 40 Left 1
WINDOW 3 36 76 Left 0
SYMATTR InstName R6
SYMATTR Value 800
SYMBOL res -384 912 R270
WINDOW 0 32 56 VTop 1
WINDOW 3 0 56 VBottom 0
SYMATTR InstName R7
SYMATTR Value 510k
SYMBOL cap -432 816 R90
WINDOW 0 0 32 VBottom 1
WINDOW 3 32 32 VTop 0
SYMATTR InstName C3
SYMATTR Value 8.22n
SYMBOL cap -448 1024 R90
WINDOW 0 0 32 VBottom 1
WINDOW 3 32 32 VTop 0
SYMATTR InstName C4
SYMATTR Value 8.22n
SYMBOL res -576 1584 R90
WINDOW 0 0 56 VBottom 1
WINDOW 3 32 56 VTop 0
SYMATTR InstName R8
SYMATTR Value 52k
SYMBOL res -576 1616 R0
WINDOW 0 36 40 Left 1
WINDOW 3 36 76 Left 0
SYMATTR InstName R9
SYMATTR Value 265
SYMBOL res -384 1472 R270
WINDOW 0 32 56 VTop 1
WINDOW 3 0 56 VBottom 0
SYMATTR InstName R10
SYMATTR Value 180k
SYMBOL cap -432 1376 R90
WINDOW 0 0 32 VBottom 1
WINDOW 3 32 32 VTop 0
SYMATTR InstName C5
SYMATTR Value 6.8n
SYMBOL cap -448 1584 R90
WINDOW 0 0 32 VBottom 1
WINDOW 3 32 32 VTop 0
SYMATTR InstName C6
SYMATTR Value 6.8n
SYMBOL res 544 1376 R90
WINDOW 0 0 56 VBottom 2
WINDOW 3 32 56 VTop 2
SYMATTR InstName R11
SYMATTR Value 1K
SYMBOL res 544 1488 R90
WINDOW 0 0 56 VBottom 2
WINDOW 3 32 56 VTop 2
SYMATTR InstName R12
SYMATTR Value 1K
SYMBOL res 768 1504 R90
WINDOW 0 0 56 VBottom 2
WINDOW 3 32 56 VTop 2
SYMATTR InstName R13
SYMATTR Value 1K
SYMBOL cap 1056 1344 R90
WINDOW 0 0 32 VBottom 2
WINDOW 3 32 32 VTop 2
SYMATTR InstName C7
SYMATTR Value 100n
SYMBOL res 1056 1344 R0
SYMATTR InstName R14
SYMATTR Value 20K
SYMBOL cap 1520 1328 R0
SYMATTR InstName C8
SYMATTR Value 1µ
SYMBOL res 1616 1312 R0
SYMATTR InstName R15
SYMATTR Value 35k
SYMBOL diode 1392 1344 R270
WINDOW 0 32 32 VTop 2
WINDOW 3 0 32 VBottom 2
SYMATTR InstName D2
SYMATTR Value 1N4148
SYMBOL res 1616 1424 R0
SYMATTR InstName R16
SYMATTR Value 15k
SYMBOL cap 1712 1456 R0
SYMATTR InstName C9
SYMATTR Value 1µ
SYMBOL MCP6001 -368 1056 M180
SYMATTR InstName U10
SYMBOL MCP6001 -368 1616 M180
SYMATTR InstName U11
SYMBOL MCP6001 704 1360 R0
SYMATTR InstName U12
SYMBOL MCP6001 1328 1328 R0
SYMATTR InstName U13
SYMBOL voltage -1328 816 R0
WINDOW 3 24 44 Left 2
WINDOW 39 0 0 Left 0
WINDOW 123 24 72 Left 2
SYMATTR Value SINE(2.5 1 1k)
SYMATTR InstName V4
SYMBOL voltage -1888 1328 R0
WINDOW 3 24 96 Invisible 2
SYMATTR Value 5
SYMATTR InstName V5
SYMBOL voltage -1888 1488 R0
WINDOW 3 24 96 Invisible 2
SYMATTR Value 5
SYMATTR InstName V6
SYMBOL res -1728 1328 R0
WINDOW 0 36 40 Invisible 2
WINDOW 3 36 76 Left 0
SYMATTR InstName R17
SYMATTR Value 10
SYMBOL res -1728 1440 R0
WINDOW 0 36 40 Invisible 2
WINDOW 3 36 76 Left 0
SYMATTR InstName R18
SYMATTR Value 10
TEXT -1328 1840 Left 2 !.tran 0.02
